# Example "data.mnc" file
 &MNC_01
 monitor_mnc=.FALSE.,
 mnc_use_outdir=.TRUE.,
 mnc_outdir_str='mnc_output_',
 mnc_filefreq=3110400000.
 &

